
##########################################################################
#               Crystallographic Information Format file
#               Produced by PyCifRW module
#
#  This is a CIF file.  CIF has been adopted by the International
#  Union of Crystallography as the standard for data archiving and
#  transmission.
#
#  For information on this file format, follow the CIF links at
#  http://www.iucr.org
##########################################################################

data_0

loop_
  _atom_site_label
  _atom_site_fract_x
  _atom_site_fract_y
  _atom_site_fract_z
  _atom_site_type_symbol
         Y1        0.25      0.0       0.5       Y         
         Y2        0.75      0.0       0.5       Y         
         Y3        0.5       0.25      0.0       Y         
         Y4        0.5       0.75      0.0       Y         
         Y5        0.0       0.5       0.75      Y         
         Y6        0.0       0.5       0.25      Y         
         Ge1       0.5       0.19399934332017335           0.3555339595202969  Ge       
         Ge2       0.5       0.19399934332017335           0.644466040479703   Ge       
         Ge3       0.5       0.8060006566798266  0.3555339595202969  Ge        
         Ge4       0.5       0.8060006566798266  0.644466040479703   Ge        
         Ge5       0.0       0.8555339595202969  0.6939993433201733  Ge        
         Ge6       0.0       0.8555339595202969  0.30600065667982657           Ge       
         Ge7       0.0       0.14446604047970305           0.6939993433201733  Ge       
         Ge8       0.0       0.14446604047970305           0.30600065667982657           Ge       
         Ge9       0.3555339595202969  0.5       0.19399934332017335           Ge       
         Ge10      0.3555339595202969  0.5       0.8060006566798266  Ge        
         Ge11      0.8555339595202969  0.6939993433201733  0.0       Ge        
         Ge12      0.8555339595202969  0.30600065667982657           0.0       Ge       
         Ge13      0.19399934332017335           0.3555339595202969  0.5       Ge       
         Ge14      0.19399934332017335           0.644466040479703   0.5       Ge       
         Ge15      0.6939993433201733  0.0       0.8555339595202969  Ge        
         Ge16      0.6939993433201733  0.0       0.14446604047970305           Ge       
         Ge17      0.644466040479703   0.5       0.19399934332017335           Ge       
         Ge18      0.644466040479703   0.5       0.8060006566798266  Ge        
         Ge19      0.14446604047970305           0.6939993433201733  0.0       Ge       
         Ge20      0.14446604047970305           0.30600065667982657           0.0      Ge       
         Ge21      0.8060006566798266  0.3555339595202969  0.5       Ge        
         Ge22      0.8060006566798266  0.644466040479703   0.5       Ge        
         Ge23      0.30600065667982657           0.0       0.8555339595202969  Ge       
         Ge24      0.30600065667982657           0.0       0.14446604047970305           Ge       
         Ge25      0.5       0.5       0.5       Ge        
         Ge26      0.0       0.0       0.0       Ge        
         Ir1       0.25      0.25      0.25      Ir        
         Ir2       0.25      0.25      0.75      Ir        
         Ir3       0.25      0.75      0.25      Ir        
         Ir4       0.25      0.75      0.75      Ir        
         Ir5       0.75      0.75      0.75      Ir        
         Ir6       0.75      0.75      0.25      Ir        
         Ir7       0.75      0.25      0.75      Ir        
         Ir8       0.75      0.25      0.25      Ir 
_cell_angle_alpha                       90.0
_cell_angle_beta                        90.0
_cell_angle_gamma                       90.0
_cell_length_a                          9.0454710840628
_cell_length_b                          9.0454710840628
_cell_length_c                          9.0454710840628
loop_
  _symmetry_equiv_pos_as_xyz
         'x, y, z' 
_symmetry_int_tables_number             1
_symmetry_space_group_name_H-M          'P 1'